*HEADING
cubit(sktop/Random_Stuff/VIP/CQEM-FEM/2D_FEM/ellipticalMesh.inp): 10/31/2023: 16
version: 2023.8
**
********************************** P A R T S **********************************
*PART, NAME=Part-Default
**
********************************** N O D E S **********************************
*NODE, NSET=ALLNODES
       1,    1.000000e+00,    0.000000e+00,    0.000000e+00
       2,    9.950646e-01,    4.961475e-02,    0.000000e+00
       3,    9.808373e-01,    9.741430e-02,    0.000000e+00
       4,    9.587398e-01,    1.421426e-01,    0.000000e+00
       5,    9.304274e-01,    1.832381e-01,    0.000000e+00
       6,    8.973708e-01,    2.206387e-01,    0.000000e+00
       7,    8.607218e-01,    2.545378e-01,    0.000000e+00
       8,    8.213359e-01,    2.852224e-01,    0.000000e+00
       9,    7.798383e-01,    3.129905e-01,    0.000000e+00
      10,    7.366873e-01,    3.381168e-01,    0.000000e+00
      11,    6.922230e-01,    3.608418e-01,    0.000000e+00
      12,    6.467022e-01,    3.813713e-01,    0.000000e+00
      13,    6.003218e-01,    3.998793e-01,    0.000000e+00
      14,    5.532359e-01,    4.165123e-01,    0.000000e+00
      15,    5.055669e-01,    4.313937e-01,    0.000000e+00
      16,    4.574140e-01,    4.446269e-01,    0.000000e+00
      17,    4.088588e-01,    4.562988e-01,    0.000000e+00
      18,    3.599695e-01,    4.664820e-01,    0.000000e+00
      19,    3.108041e-01,    4.752370e-01,    0.000000e+00
      20,    2.614130e-01,    4.826135e-01,    0.000000e+00
** ... 726 like lines cut
**
********************************** E L E M E N T S ****************************
*ELEMENT, TYPE=STRI3, ELSET=EB1
       1,      49,      50,      98
       2,      97,       1,      99
       3,       1,       2,     100
       4,      48,      49,     101
       5,      50,      51,     102
       6,       2,       3,     103
       7,      96,      97,     104
       8,      47,      48,     105
       9,      51,      52,     106
      10,       3,       4,     107
      11,      95,      96,     108
      12,      46,      47,     109
      13,      52,      53,     110
      14,       4,       5,     111
      15,      94,      95,     112
      16,      98,      50,     102
      17,      98,     102,     113
      18,     113,     102,     106
      19,     106,     102,      51
      20,      98,     113,     101
** ... 1373 like lines cut
*ELEMENT, TYPE=B21, ELSET=EB2
    1394,       1,       2
    1395,       2,       3
    1396,       3,       4
    1397,       4,       5
    1398,       5,       6
    1399,       6,       7
    1400,       7,       8
    1401,       8,       9
    1402,       9,      10
    1403,      10,      11
    1404,      11,      12
    1405,      12,      13
    1406,      13,      14
    1407,      14,      15
    1408,      15,      16
    1409,      16,      17
    1410,      17,      18
    1411,      18,      19
    1412,      19,      20
    1413,      20,      21
** ... 77 like lines cut
**
********************************** P R O P E R T I E S ************************
*SHELL SECTION, ELSET=EB1, SECTION INTEGRATION=SIMPSON, MATERIAL=Default-Steel
1.000000e+00
**
*END PART
**
**
**
********************************** E N D   P A R T S **********************************
**
**
********************************** A S S E M B L Y ************************************
**
*ASSEMBLY, NAME=ASSEMBLY1
**
*INSTANCE, NAME=Part-Default_1, PART=Part-Default
*END INSTANCE
**
*END ASSEMBLY
**
**
**
*MATERIAL, NAME = Default-Steel
*ELASTIC, TYPE=ISOTROPIC
2.068000e+05, 2.900000e-01
*DENSITY
7.000000e-06
*CONDUCTIVITY,TYPE=ISO
4.500000e-02
*SPECIFIC HEAT
5.000000e+02
**
**
************************************** H I S T O R Y *************************************
**
*PREPRINT
**
**************************************** S T E P 1 ***************************************
*STEP,INC=100,NAME=Default Set
**
*STATIC
1, 1, 1e-05, 1
**
**
**
**
*END STEP
