*HEADING
cubit(esktop/Random_Stuff/VIP/CQEM-FEM/2D_FEM/rectangleMesh.inp): 11/09/2023: 14
version: 2023.8
**
********************************** P A R T S **********************************
*PART, NAME=Part-Default
**
********************************** N O D E S **********************************
*NODE, NSET=ALLNODES
       1,    2.500000e-01,    1.250000e-01,    0.000000e+00
       2,   -2.500000e-01,    1.250000e-01,    0.000000e+00
       3,    2.343750e-01,    1.250000e-01,    0.000000e+00
       4,    2.187500e-01,    1.250000e-01,    0.000000e+00
       5,    2.031250e-01,    1.250000e-01,    0.000000e+00
       6,    1.875000e-01,    1.250000e-01,    0.000000e+00
       7,    1.718750e-01,    1.250000e-01,    0.000000e+00
       8,    1.562500e-01,    1.250000e-01,    0.000000e+00
       9,    1.406250e-01,    1.250000e-01,    0.000000e+00
      10,    1.250000e-01,    1.250000e-01,    0.000000e+00
      11,    1.093750e-01,    1.250000e-01,    0.000000e+00
      12,    9.375000e-02,    1.250000e-01,    0.000000e+00
      13,    7.812500e-02,    1.250000e-01,    0.000000e+00
      14,    6.250000e-02,    1.250000e-01,    0.000000e+00
      15,    4.687500e-02,    1.250000e-01,    0.000000e+00
      16,    3.125000e-02,    1.250000e-01,    0.000000e+00
      17,    1.562500e-02,    1.250000e-01,    0.000000e+00
      18,    0.000000e+00,    1.250000e-01,    0.000000e+00
      19,   -1.562500e-02,    1.250000e-01,    0.000000e+00
      20,   -3.125000e-02,    1.250000e-01,    0.000000e+00
** ... 596 like lines cut
**
********************************** E L E M E N T S ****************************
*ELEMENT, TYPE=STRI3, ELSET=EB1
       1,      96,       1,       3
       2,       3,       4,      97
       3,       4,       5,      98
       4,       5,       6,      99
       5,       6,       7,     100
       6,       7,       8,     101
       7,       8,       9,     102
       8,       9,      10,     103
       9,      10,      11,     104
      10,      11,      12,     105
      11,      12,      13,     106
      12,      13,      14,     107
      13,      14,      15,     108
      14,      15,      16,     109
      15,      16,      17,     110
      16,      17,      18,     111
      17,      18,      19,     112
      18,      19,      20,     113
      19,      20,      21,     114
      20,      21,      22,     115
** ... 1114 like lines cut
**
********************************** P R O P E R T I E S ************************
*SHELL SECTION, ELSET=EB1, SECTION INTEGRATION=SIMPSON, MATERIAL=Default-Steel
1.000000e+00
**
*END PART
**
**
**
********************************** E N D   P A R T S **********************************
**
**
********************************** A S S E M B L Y ************************************
**
*ASSEMBLY, NAME=ASSEMBLY1
**
*INSTANCE, NAME=Part-Default_1, PART=Part-Default
*END INSTANCE
**
*END ASSEMBLY
**
**
**
*MATERIAL, NAME = Default-Steel
*ELASTIC, TYPE=ISOTROPIC
2.068000e+05, 2.900000e-01
*DENSITY
7.000000e-06
*CONDUCTIVITY,TYPE=ISO
4.500000e-02
*SPECIFIC HEAT
5.000000e+02
**
**
************************************** H I S T O R Y *************************************
**
*PREPRINT
**
**************************************** S T E P 1 ***************************************
*STEP,INC=100,NAME=Default Set
**
*STATIC
1, 1, 1e-05, 1
**
**
**
**
*END STEP
