*HEADING
cubit(/Desktop/Random_Stuff/VIP/CQEM-FEM/2D_FEM/testBigRect.inp): 10/17/2023: 15
version: 2023.8
**
********************************** P A R T S **********************************
*PART, NAME=Part-Default
**
********************************** N O D E S **********************************
*NODE, NSET=ALLNODES
       1,    5.000000e-01,    2.500000e-01,    0.000000e+00
       2,   -5.000000e-01,    2.500000e-01,    0.000000e+00
       3,    4.500000e-01,    2.500000e-01,    0.000000e+00
       4,    4.000000e-01,    2.500000e-01,    0.000000e+00
       5,    3.500000e-01,    2.500000e-01,    0.000000e+00
       6,    3.000000e-01,    2.500000e-01,    0.000000e+00
       7,    2.500000e-01,    2.500000e-01,    0.000000e+00
       8,    2.000000e-01,    2.500000e-01,    0.000000e+00
       9,    1.500000e-01,    2.500000e-01,    0.000000e+00
      10,    1.000000e-01,    2.500000e-01,    0.000000e+00
      11,    5.000000e-02,    2.500000e-01,    0.000000e+00
      12,    1.110223e-16,    2.500000e-01,    0.000000e+00
      13,   -5.000000e-02,    2.500000e-01,    0.000000e+00
      14,   -1.000000e-01,    2.500000e-01,    0.000000e+00
      15,   -1.500000e-01,    2.500000e-01,    0.000000e+00
      16,   -2.000000e-01,    2.500000e-01,    0.000000e+00
      17,   -2.500000e-01,    2.500000e-01,    0.000000e+00
      18,   -3.000000e-01,    2.500000e-01,    0.000000e+00
      19,   -3.500000e-01,    2.500000e-01,    0.000000e+00
      20,   -4.000000e-01,    2.500000e-01,    0.000000e+00
** ... 228 like lines cut
**
********************************** E L E M E N T S ****************************
*ELEMENT, TYPE=STRI3, ELSET=EB1
       1,      60,       1,       3
       2,       3,       4,      61
       3,       4,       5,      62
       4,       5,       6,      63
       5,       6,       7,      64
       6,       7,       8,      65
       7,       8,       9,      66
       8,       9,      10,      67
       9,      10,      11,      68
      10,      11,      12,      69
      11,      12,      13,      70
      12,      13,      14,      71
      13,      14,      15,      72
      14,      15,      16,      73
      15,      16,      17,      74
      16,      17,      18,      75
      17,      18,      19,      76
      18,      19,      20,      77
      19,      20,      21,      78
      20,      21,       2,      23
** ... 414 like lines cut
*ELEMENT, TYPE=B21, ELSET=EB2
     435,       1,       3
     436,       3,       4
     437,       4,       5
     438,       5,       6
     439,       6,       7
     440,       7,       8
     441,       8,       9
     442,       9,      10
     443,      10,      11
     444,      11,      12
     445,      12,      13
     446,      13,      14
     447,      14,      15
     448,      15,      16
     449,      16,      17
     450,      17,      18
     451,      18,      19
     452,      19,      20
     453,      20,      21
     454,      21,       2
** ... 40 like lines cut
**
********************************** P R O P E R T I E S ************************
*SHELL SECTION, ELSET=EB1, SECTION INTEGRATION=SIMPSON, MATERIAL=Default-Steel
1.000000e+00
**
*END PART
**
**
**
********************************** E N D   P A R T S **********************************
**
**
********************************** A S S E M B L Y ************************************
**
*ASSEMBLY, NAME=ASSEMBLY1
**
*INSTANCE, NAME=Part-Default_1, PART=Part-Default
*END INSTANCE
**
*END ASSEMBLY
**
**
**
*MATERIAL, NAME = Default-Steel
*ELASTIC, TYPE=ISOTROPIC
2.068000e+05, 2.900000e-01
*DENSITY
7.000000e-06
*CONDUCTIVITY,TYPE=ISO
4.500000e-02
*SPECIFIC HEAT
5.000000e+02
**
**
************************************** H I S T O R Y *************************************
**
*PREPRINT
**
**************************************** S T E P 1 ***************************************
*STEP,INC=100,NAME=Default Set
**
*STATIC
1, 1, 1e-05, 1
**
**
**
**
*END STEP
