*HEADING
cubit(Desktop/Random_Stuff/VIP/CQEM-FEM/2D_FEM/circularMesh.inp): 10/31/2023: 14
version: 2023.8
**
********************************** P A R T S **********************************
*PART, NAME=Part-Default
**
********************************** N O D E S **********************************
*NODE, NSET=ALLNODES
       1,    1.000000e+00,    0.000000e+00,    0.000000e+00
       2,    9.987569e-01,    4.984589e-02,    0.000000e+00
       3,    9.950308e-01,    9.956785e-02,    0.000000e+00
       4,    9.888308e-01,    1.490423e-01,    0.000000e+00
       5,    9.801725e-01,    1.981461e-01,    0.000000e+00
       6,    9.690773e-01,    2.467574e-01,    0.000000e+00
       7,    9.555728e-01,    2.947552e-01,    0.000000e+00
       8,    9.396926e-01,    3.420201e-01,    0.000000e+00
       9,    9.214762e-01,    3.884348e-01,    0.000000e+00
      10,    9.009689e-01,    4.338837e-01,    0.000000e+00
      11,    8.782216e-01,    4.782540e-01,    0.000000e+00
      12,    8.532909e-01,    5.214352e-01,    0.000000e+00
      13,    8.262388e-01,    5.633201e-01,    0.000000e+00
      14,    7.971325e-01,    6.038044e-01,    0.000000e+00
      15,    7.660444e-01,    6.427876e-01,    0.000000e+00
      16,    7.330519e-01,    6.801727e-01,    0.000000e+00
      17,    6.982368e-01,    7.158668e-01,    0.000000e+00
      18,    6.616858e-01,    7.497812e-01,    0.000000e+00
      19,    6.234898e-01,    7.818315e-01,    0.000000e+00
      20,    5.837437e-01,    8.119380e-01,    0.000000e+00
** ... 1468 like lines cut
**
********************************** E L E M E N T S ****************************
*ELEMENT, TYPE=STRI3, ELSET=EB1
       1,     126,       1,     127
       2,       1,       2,     128
       3,       2,       3,     129
       4,       3,       4,     130
       5,       4,       5,     131
       6,       5,       6,     132
       7,       6,       7,     133
       8,       7,       8,     134
       9,       8,       9,     135
      10,       9,      10,     136
      11,      10,      11,     137
      12,      11,      12,     138
      13,      12,      13,     139
      14,      13,      14,     140
      15,      14,      15,     141
      16,      15,      16,     142
      17,      16,      17,     143
      18,      17,      18,     144
      19,      18,      19,     145
      20,      19,      20,     146
** ... 2828 like lines cut
*ELEMENT, TYPE=B21, ELSET=EB2
    2849,       1,       2
    2850,       2,       3
    2851,       3,       4
    2852,       4,       5
    2853,       5,       6
    2854,       6,       7
    2855,       7,       8
    2856,       8,       9
    2857,       9,      10
    2858,      10,      11
    2859,      11,      12
    2860,      12,      13
    2861,      13,      14
    2862,      14,      15
    2863,      15,      16
    2864,      16,      17
    2865,      17,      18
    2866,      18,      19
    2867,      19,      20
    2868,      20,      21
** ... 106 like lines cut
**
********************************** P R O P E R T I E S ************************
*SHELL SECTION, ELSET=EB1, SECTION INTEGRATION=SIMPSON, MATERIAL=Default-Steel
1.000000e+00
**
*END PART
**
**
**
********************************** E N D   P A R T S **********************************
**
**
********************************** A S S E M B L Y ************************************
**
*ASSEMBLY, NAME=ASSEMBLY1
**
*INSTANCE, NAME=Part-Default_1, PART=Part-Default
*END INSTANCE
**
*END ASSEMBLY
**
**
**
*MATERIAL, NAME = Default-Steel
*ELASTIC, TYPE=ISOTROPIC
2.068000e+05, 2.900000e-01
*DENSITY
7.000000e-06
*CONDUCTIVITY,TYPE=ISO
4.500000e-02
*SPECIFIC HEAT
5.000000e+02
**
**
************************************** H I S T O R Y *************************************
**
*PREPRINT
**
**************************************** S T E P 1 ***************************************
*STEP,INC=100,NAME=Default Set
**
*STATIC
1, 1, 1e-05, 1
**
**
**
**
*END STEP
