*HEADING
cubit(/Desktop/Random_Stuff/VIP/CQEM-FEM/2D_FEM/largestMesh.inp): 10/24/2023: 19
version: 2023.8
**
********************************** P A R T S **********************************
*PART, NAME=Part-Default
**
********************************** N O D E S **********************************
*NODE, NSET=ALLNODES
       1,    5.000000e-01,    1.000000e+00,    0.000000e+00
       2,   -5.000000e-01,    1.000000e+00,    0.000000e+00
       3,    4.375000e-01,    1.000000e+00,    0.000000e+00
       4,    3.750000e-01,    1.000000e+00,    0.000000e+00
       5,    3.125000e-01,    1.000000e+00,    0.000000e+00
       6,    2.500000e-01,    1.000000e+00,    0.000000e+00
       7,    1.875000e-01,    1.000000e+00,    0.000000e+00
       8,    1.250000e-01,    1.000000e+00,    0.000000e+00
       9,    6.250000e-02,    1.000000e+00,    0.000000e+00
      10,    0.000000e+00,    1.000000e+00,    0.000000e+00
      11,   -6.250000e-02,    1.000000e+00,    0.000000e+00
      12,   -1.250000e-01,    1.000000e+00,    0.000000e+00
      13,   -1.875000e-01,    1.000000e+00,    0.000000e+00
      14,   -2.500000e-01,    1.000000e+00,    0.000000e+00
      15,   -3.125000e-01,    1.000000e+00,    0.000000e+00
      16,   -3.750000e-01,    1.000000e+00,    0.000000e+00
      17,   -4.375000e-01,    1.000000e+00,    0.000000e+00
      18,   -5.000000e-01,   -1.000000e+00,    0.000000e+00
      19,   -5.000000e-01,    9.375000e-01,    0.000000e+00
      20,   -5.000000e-01,    8.750000e-01,    0.000000e+00
** ... 596 like lines cut
**
********************************** E L E M E N T S ****************************
*ELEMENT, TYPE=STRI3, ELSET=EB1
       1,      96,       1,       3
       2,       3,       4,      97
       3,       4,       5,      98
       4,       5,       6,      99
       5,       6,       7,     100
       6,       7,       8,     101
       7,       8,       9,     102
       8,       9,      10,     103
       9,      10,      11,     104
      10,      11,      12,     105
      11,      12,      13,     106
      12,      13,      14,     107
      13,      14,      15,     108
      14,      15,      16,     109
      15,      16,      17,     110
      16,      17,       2,      19
      17,      19,      20,     111
      18,      20,      21,     112
      19,      21,      22,     113
      20,      22,      23,     114
** ... 1114 like lines cut
*ELEMENT, TYPE=B21, ELSET=EB2
    1135,       1,       3
    1136,       3,       4
    1137,       4,       5
    1138,       5,       6
    1139,       6,       7
    1140,       7,       8
    1141,       8,       9
    1142,       9,      10
    1143,      10,      11
    1144,      11,      12
    1145,      12,      13
    1146,      13,      14
    1147,      14,      15
    1148,      15,      16
    1149,      16,      17
    1150,      17,       2
    1151,       2,      19
    1152,      19,      20
    1153,      20,      21
    1154,      21,      22
** ... 76 like lines cut
**
********************************** P R O P E R T I E S ************************
*SHELL SECTION, ELSET=EB1, SECTION INTEGRATION=SIMPSON, MATERIAL=Default-Steel
1.000000e+00
**
*END PART
**
**
**
********************************** E N D   P A R T S **********************************
**
**
********************************** A S S E M B L Y ************************************
**
*ASSEMBLY, NAME=ASSEMBLY1
**
*INSTANCE, NAME=Part-Default_1, PART=Part-Default
*END INSTANCE
**
*END ASSEMBLY
**
**
**
*MATERIAL, NAME = Default-Steel
*ELASTIC, TYPE=ISOTROPIC
2.068000e+05, 2.900000e-01
*DENSITY
7.000000e-06
*CONDUCTIVITY,TYPE=ISO
4.500000e-02
*SPECIFIC HEAT
5.000000e+02
**
**
************************************** H I S T O R Y *************************************
**
*PREPRINT
**
**************************************** S T E P 1 ***************************************
*STEP,INC=100,NAME=Default Set
**
*STATIC
1, 1, 1e-05, 1
**
**
**
**
*END STEP
