*HEADING
cubit(sktop/Random_Stuff/VIP/CQEM-FEM/3D_FEM/1x0.5x0.75Mesh.inp): 02/02/2024: 12
version: 2023.8
**
********************************** P A R T S **********************************
*PART, NAME=Part-Default
**
********************************** N O D E S **********************************
*NODE, NSET=ALLNODES
       1,   -5.000000e-01,    2.500000e-01,    3.750000e-01
       2,   -5.000000e-01,    2.500000e-01,   -3.750000e-01
       3,   -5.000000e-01,   -2.500000e-01,   -3.750000e-01
       4,   -5.000000e-01,   -2.500000e-01,    3.750000e-01
       5,    5.000000e-01,   -2.500000e-01,    3.750000e-01
       6,    5.000000e-01,   -2.500000e-01,   -3.750000e-01
       7,    5.000000e-01,    2.500000e-01,   -3.750000e-01
       8,    5.000000e-01,    2.500000e-01,    3.750000e-01
       9,   -5.000000e-01,    2.500000e-01,    2.250000e-01
      10,   -5.000000e-01,    2.500000e-01,    7.500000e-02
      11,   -5.000000e-01,    2.500000e-01,   -7.500000e-02
      12,   -5.000000e-01,    2.500000e-01,   -2.250000e-01
      13,   -5.000000e-01,    8.333333e-02,   -3.750000e-01
      14,   -5.000000e-01,   -8.333333e-02,   -3.750000e-01
      15,   -5.000000e-01,   -2.500000e-01,   -2.250000e-01
      16,   -5.000000e-01,   -2.500000e-01,   -7.500000e-02
      17,   -5.000000e-01,   -2.500000e-01,    7.500000e-02
      18,   -5.000000e-01,   -2.500000e-01,    2.250000e-01
      19,   -5.000000e-01,   -8.333333e-02,    3.750000e-01
      20,   -5.000000e-01,    8.333333e-02,    3.750000e-01
** ... 202 like lines cut
**
********************************** E L E M E N T S ****************************
*ELEMENT, TYPE=C3D4, ELSET=mpr1epr1
       1,      63,      50,      41,      42
       2,     151,      63,      41,      79
       3,     151,      40,      79,      41
       4,     152,      64,      79,      53
       5,      18,       4,      58,      77
       6,     164,     165,      28,      66
       7,     164,      69,      77,      58
       8,     162,      75,      68,      67
       9,     165,      66,      20,      28
      10,     155,      74,      71,      73
      11,     157,      71,      72,      73
      12,     158,      74,      70,      71
      13,     160,      74,      68,      75
      14,      59,      69,     120,      58
      15,     154,      65,      73,      64
      16,     160,      74,      75,      70
      17,      54,     142,      53,      64
      18,     103,      37,      36,       7
      19,     172,      35,     106,      91
      20,     112,      96,      81,      82
** ... 779 like lines cut
*ELEMENT, TYPE=STRI3, ELSET=EB2
     800,      41,      63,      42
     801,       8,      79,      41
     802,       5,      76,      62
     803,       8,      53,      79
     804,      65,      64,      54
     805,      77,       4,      58
     806,       1,      78,      57
     807,      67,      56,      57
     808,      68,      55,      56
     809,      77,      19,       4
     810,       1,      20,      78
     811,      73,      63,      64
     812,      69,      77,      58
     813,      70,      69,      59
     814,      62,      72,      61
     815,       5,      42,      76
     816,      64,      53,      54
     817,      79,      63,      41
     818,      71,      60,      61
     819,      65,      73,      64
** ... 276 like lines cut
**
********************************** P R O P E R T I E S ************************
*SOLID SECTION, ELSET=EB1, MATERIAL=Default-Steel
*SHELL SECTION, ELSET=EB2, SECTION INTEGRATION=SIMPSON, MATERIAL=Default-Steel
1.000000e+00
**
*END PART
**
**
**
********************************** E N D   P A R T S **********************************
**
**
********************************** A S S E M B L Y ************************************
**
*ASSEMBLY, NAME=ASSEMBLY1
**
*INSTANCE, NAME=Part-Default_1, PART=Part-Default
*END INSTANCE
**
*END ASSEMBLY
**
**
**
*MATERIAL, NAME = Default-Steel
*ELASTIC, TYPE=ISOTROPIC
2.068000e+05, 2.900000e-01
*DENSITY
7.000000e-06
*CONDUCTIVITY,TYPE=ISO
4.500000e-02
*SPECIFIC HEAT
5.000000e+02
**
**
************************************** H I S T O R Y *************************************
**
*PREPRINT
**
**************************************** S T E P 1 ***************************************
*STEP,INC=100,NAME=Default Set
**
*STATIC
1, 1, 1e-05, 1
**
**
**
**
*END STEP
