*HEADING
cubit(ndom_Stuff/VIP/CQEM-FEM/3D_Potential_FEM/1x0.5x0.75cm.inp): 03/28/2024: 20
version: 2023.8
**
********************************** P A R T S **********************************
*PART, NAME=Part-Default
**
********************************** N O D E S **********************************
*NODE, NSET=ALLNODES
       1,   -5.000000e-03,    2.500000e-03,    3.750000e-03
       2,   -5.000000e-03,    2.500000e-03,   -3.750000e-03
       3,   -5.000000e-03,   -2.500000e-03,   -3.750000e-03
       4,   -5.000000e-03,   -2.500000e-03,    3.750000e-03
       5,    5.000000e-03,   -2.500000e-03,    3.750000e-03
       6,    5.000000e-03,   -2.500000e-03,   -3.750000e-03
       7,    5.000000e-03,    2.500000e-03,   -3.750000e-03
       8,    5.000000e-03,    2.500000e-03,    3.750000e-03
       9,   -5.000000e-03,    2.500000e-03,    2.250000e-03
      10,   -5.000000e-03,    2.500000e-03,    7.500000e-04
      11,   -5.000000e-03,    2.500000e-03,   -7.500000e-04
      12,   -5.000000e-03,    2.500000e-03,   -2.250000e-03
      13,   -5.000000e-03,    8.333333e-04,   -3.750000e-03
      14,   -5.000000e-03,   -8.333333e-04,   -3.750000e-03
      15,   -5.000000e-03,   -2.500000e-03,   -2.250000e-03
      16,   -5.000000e-03,   -2.500000e-03,   -7.500000e-04
      17,   -5.000000e-03,   -2.500000e-03,    7.500000e-04
      18,   -5.000000e-03,   -2.500000e-03,    2.250000e-03
      19,   -5.000000e-03,   -8.333333e-04,    3.750000e-03
      20,   -5.000000e-03,    8.333333e-04,    3.750000e-03
** ... 235 like lines cut
**
********************************** E L E M E N T S ****************************
*ELEMENT, TYPE=C3D4, ELSET=mpr1epr1
       1,      54,      73,      46,      45
       2,     171,      65,      75,      76
       3,     174,     172,      75,      77
       4,     180,      78,      80,      63
       5,     179,      82,      87,      81
       6,     182,      70,      83,      82
       7,     130,      69,      70,      82
       8,     179,      69,      82,      81
       9,     132,      68,      79,      67
      10,      68,     131,      81,      69
      11,     233,      89,      39,      59
      12,     233,      39,     101,     102
      13,      20,      28,      77,      19
      14,     105,     117,      93,      92
      15,      90,     123,      89,     101
      16,      91,     128,     106,      92
      17,     217,     105,     115,     106
      18,     155,     110,      97,      98
      19,     227,     112,      99,     145
      20,     144,     111,      98,      99
** ... 911 like lines cut
*ELEMENT, TYPE=STRI3, ELSET=EB2
     932,      45,      73,      46
     933,       8,      61,      45
     934,      72,       5,      46
     935,      74,      45,      61
     936,      19,       4,      67
     937,      66,      75,      65
     938,       1,      20,      66
     939,      76,      64,      65
     940,      77,      75,      20
     941,      78,      63,      64
     942,      79,      19,      67
     943,      80,      62,      63
     944,      87,      88,      81
     945,      86,      87,      82
     946,      84,      83,      71
     947,      74,      61,      62
     948,      83,      70,      71
     949,      84,      72,      46
     950,      74,      73,      45
     951,      79,      67,      68
** ... 316 like lines cut
**
********************************** P R O P E R T I E S ************************
*SOLID SECTION, ELSET=EB1, MATERIAL=Default-Steel
*SHELL SECTION, ELSET=EB2, SECTION INTEGRATION=SIMPSON, MATERIAL=Default-Steel
1.000000e+00
**
*END PART
**
**
**
********************************** E N D   P A R T S **********************************
**
**
********************************** A S S E M B L Y ************************************
**
*ASSEMBLY, NAME=ASSEMBLY1
**
*INSTANCE, NAME=Part-Default_1, PART=Part-Default
*END INSTANCE
**
*END ASSEMBLY
**
**
**
*MATERIAL, NAME = Default-Steel
*ELASTIC, TYPE=ISOTROPIC
2.068000e+05, 2.900000e-01
*DENSITY
7.000000e-06
*CONDUCTIVITY,TYPE=ISO
4.500000e-02
*SPECIFIC HEAT
5.000000e+02
**
**
************************************** H I S T O R Y *************************************
**
*PREPRINT
**
**************************************** S T E P 1 ***************************************
*STEP,INC=100,NAME=Default Set
**
*STATIC
1, 1, 1e-05, 1
**
**
**
**
*END STEP
