*HEADING
cubit(an/Desktop/Random_Stuff/VIP/CQEM-FEM/3D_FEM/cubicMesh.inp): 12/05/2023: 09
version: 2023.8
**
********************************** P A R T S **********************************
*PART, NAME=Part-Default
**
********************************** N O D E S **********************************
*NODE, NSET=ALLNODES
       1,    5.000000e-01,   -5.000000e-01,    5.000000e-01
       2,    5.000000e-01,    5.000000e-01,    5.000000e-01
       3,   -5.000000e-01,    5.000000e-01,    5.000000e-01
       4,   -5.000000e-01,   -5.000000e-01,    5.000000e-01
       5,    5.000000e-01,    5.000000e-01,   -5.000000e-01
       6,    5.000000e-01,   -5.000000e-01,   -5.000000e-01
       7,   -5.000000e-01,   -5.000000e-01,   -5.000000e-01
       8,   -5.000000e-01,    5.000000e-01,   -5.000000e-01
       9,    5.000000e-01,    0.000000e+00,    5.000000e-01
      10,    0.000000e+00,    5.000000e-01,    5.000000e-01
      11,   -5.000000e-01,    0.000000e+00,    5.000000e-01
      12,    0.000000e+00,   -5.000000e-01,    5.000000e-01
      13,    4.642597e-02,    4.642597e-02,    5.000000e-01
      14,    5.000000e-01,    0.000000e+00,   -5.000000e-01
      15,    0.000000e+00,   -5.000000e-01,   -5.000000e-01
      16,   -5.000000e-01,    0.000000e+00,   -5.000000e-01
      17,    0.000000e+00,    5.000000e-01,   -5.000000e-01
      18,    4.642597e-02,   -4.642597e-02,   -5.000000e-01
      19,   -5.000000e-01,   -5.000000e-01,    0.000000e+00
      20,    5.000000e-01,   -5.000000e-01,    0.000000e+00
** ... 7 like lines cut
**
********************************** E L E M E N T S ****************************
*ELEMENT, TYPE=C3D4, ELSET=mpr1epr1
       1,      24,      10,      13,       2
       2,      26,      12,       9,      13
       3,      27,      11,      12,      13
       4,      20,       1,       9,      12
       5,      27,      10,      11,      13
       6,      27,      12,      11,       4
       7,      24,       9,       2,      13
       8,      26,       6,      15,      18
       9,      26,      24,      13,       9
      10,      26,      14,       6,      18
      11,      25,      17,      14,      18
      12,      24,      25,       5,      14
      13,      25,      17,       5,      14
      14,      25,      23,      17,      18
      15,      27,      25,      10,      13
      16,      22,      23,       8,      17
      17,      21,      16,      18,      15
      18,      21,       7,      16,      15
      19,      27,      23,      19,      11
      20,      27,      19,      21,      12
** ... 31 like lines cut
*ELEMENT, TYPE=STRI3, ELSET=EB2
      52,       2,      13,       9
      53,      12,       1,       9
      54,       3,      11,      10
      55,       2,      10,      13
      56,       4,      12,      11
      57,      12,      13,      11
      58,      13,      10,      11
      59,      13,      12,       9
      60,      15,      18,       6
      61,       5,      14,      17
      62,      16,      15,       7
      63,      18,      14,       6
      64,      17,      16,       8
      65,      14,      18,      17
      66,      15,      16,      18
      67,      16,      17,      18
      68,      15,      21,       7
      69,       4,      19,      12
      70,      20,      15,       6
      71,      21,      19,       7
** ... 28 like lines cut
**
********************************** P R O P E R T I E S ************************
*SOLID SECTION, ELSET=EB1, MATERIAL=Default-Steel
*SHELL SECTION, ELSET=EB2, SECTION INTEGRATION=SIMPSON, MATERIAL=Default-Steel
1.000000e+00
**
*END PART
**
**
**
********************************** E N D   P A R T S **********************************
**
**
********************************** A S S E M B L Y ************************************
**
*ASSEMBLY, NAME=ASSEMBLY1
**
*INSTANCE, NAME=Part-Default_1, PART=Part-Default
*END INSTANCE
**
*END ASSEMBLY
**
**
**
*MATERIAL, NAME = Default-Steel
*ELASTIC, TYPE=ISOTROPIC
2.068000e+05, 2.900000e-01
*DENSITY
7.000000e-06
*CONDUCTIVITY,TYPE=ISO
4.500000e-02
*SPECIFIC HEAT
5.000000e+02
**
**
************************************** H I S T O R Y *************************************
**
*PREPRINT
**
**************************************** S T E P 1 ***************************************
*STEP,INC=100,NAME=Default Set
**
*STATIC
1, 1, 1e-05, 1
**
**
**
**
*END STEP
